15

C       -4.6155712792      1.7930706953     -0.0000000703                 
C       -4.4144168546      3.1750304396     -0.0000001421                 
C       -3.1177397098      3.7017205460     -0.0000000292                 
C       -2.0282092140      2.8238774858      0.0000000136                 
C       -2.2304807613      1.4432470786      0.0000000785                 
C       -3.5242465633      0.9273413296      0.0000000494                 
H       -5.2771929804      3.8363557680     -0.0000002732                 
H       -1.0158071028      3.2186822564     -0.0000000013                 
H       -1.3806685632      0.7686528649      0.0000001358                 
H       -5.6256228348      1.3919655977     -0.0000001248                 
H       -3.6808111918     -0.1479382416      0.0000000952                 
C       -2.8800900706      5.1822929546     -0.0000002862                 
H       -3.8214292471      5.7408670374      0.0000009756                 
H       -2.3158925749      5.4729996366     -0.8921682360                 
H       -2.3158903170      5.4729996165      0.8921662473  
