15

H          4.68279        4.91862        4.60649
C          2.60449        2.60512        3.71399
C          4.12259        4.62182        3.71399
C          3.89879        3.13882        3.71399
C          4.79969        0.88482        3.71399
C          3.50759        0.36292        3.71399
C          4.99499        2.26682        3.71399
C          2.41059        1.22252        3.71399
H          1.73769        3.26182        3.71399
H          6.00839        2.66172        3.71399
H          1.40249        0.81652        3.71399
H          5.65599        0.21572        3.71399
H          3.17549        5.17132        3.71399
H          3.35549       -0.71298        3.71399
H          4.68279        4.91862        2.82149
