 xtb: 6.5.1 (conda-forge)
          03162323193D

  6  5  0     0  0            999 V2000
   -3.5472    0.5513   -0.0883 C   0  0  0  0  0  0  0  0  0  0  0  0
   -3.3149    0.2396    0.9330 H   0  0  0  0  0  0  0  0  0  0  0  0
   -4.6286    0.5233   -0.2392 H   0  0  0  0  0  0  0  0  0  0  0  0
   -3.0638   -0.1178   -0.8042 H   0  0  0  0  0  0  0  0  0  0  0  0
   -3.0885    1.8763   -0.2931 O   0  0  0  0  0  0  0  0  0  0  0  0
   -2.1290    1.8696   -0.1502 H   0  0  0  0  0  0  0  0  0  0  0  0
  1  2  1  0  0  0  0
  1  3  1  0  0  0  0
  1  4  1  0  0  0  0
  1  5  1  0  0  0  0
  5  6  1  0  0  0  0
M  END
