196

C   -11.55266  -0.61032  -0.64584
C   -12.70677  -0.94707  -0.05027
C   -13.71094  -1.89064  -0.56032
C   -14.03550  -2.03129  -2.03257
C   -13.32162  -3.15715  -1.29086
C   -11.91240  -3.53850  -1.60684
C   -10.93453  -2.65667  -1.92355
C   -11.11762  -1.17446  -1.97566
C   -12.07553  -0.82628  -3.07238
C   -13.38290  -1.16843  -3.06504
H   -10.85992   0.07791  -0.16447
H   -12.89735  -0.58122   0.95726
H   -14.56467  -1.97882   0.10951
H   -15.08436  -2.22139  -2.25625
H   -13.93674  -4.00256  -0.99313
H   -10.14814  -0.72062  -2.21736
H   -11.63471  -0.48223  -4.00650
C   -14.24089  -0.54396  -4.15465
C   -14.81730  -1.52121  -5.16763
C   -15.04644  -1.09657  -6.61004
C   -15.53900   0.33283  -6.44406
C   -15.54083   1.23196  -5.21730
C   -14.51836   0.95123  -4.12684
H   -15.22074  -2.48396  -4.85850
H   -16.26471   2.03778  -5.10844
C   -13.96914   2.04658  -3.22557
C   -14.85548   2.19028  -1.99763
H   -14.03041   2.94251  -3.84123
H   -13.00310   1.63527  -2.93738
C   -14.21201   2.24594  -0.62031
H   -15.34557   3.15772  -2.09448
H   -15.44298   1.27435  -2.03550
C   -14.41903   3.49798   0.21856
H   -14.69991   1.45997  -0.04610
H   -13.13580   2.23769  -0.78527
C   -13.66113   3.44440   1.53646
H   -15.48020   3.51007   0.46205
H   -13.99473   4.31216  -0.36677
C   -14.44312   3.94294   2.74238
H   -12.81680   4.12508   1.43992
H   -13.47008   2.39395   1.74995
H   -15.26874   3.24112   2.84991
H   -14.73864   4.95054   2.45401
H   -13.71735   3.89860   3.55298
C   -15.49098  -1.89344  -7.82705
C   -14.69534  -3.11380  -8.26493
H   -15.36364  -1.17748  -8.63738
H   -16.46002  -2.25879  -7.49095
C   -13.28760  -2.95223  -8.81838
H   -15.28293  -3.51113  -9.09099
H   -14.56443  -3.67535  -7.34133
C   -13.08766  -2.05611 -10.03129
H   -13.03294  -3.95062  -9.17033
H   -12.73055  -2.48970  -8.00520
C   -11.78396  -2.18905 -10.80385
H   -13.86515  -2.34321 -10.73739
H   -13.05011  -1.04977  -9.61732
C   -11.75705  -3.14078 -11.99035
H   -11.60567  -1.21311 -11.25250
H   -11.08282  -2.59318 -10.07543
H   -10.71736  -3.11250 -12.31284
H   -12.07193  -4.09532 -11.57146
H   -12.45625  -2.71176 -12.70647
H   -14.22867  -7.74458 -12.83481
H   -14.36565  -5.46562 -14.68789
H   -16.15036  -3.17271 -12.93876
H   -16.43010  -7.14832 -13.33976
H   -17.20692  -4.90881 -14.00802
C   -14.59274  -8.02767 -13.82125
H   -14.44939   1.11345 -10.36153
C   -15.21065  -5.56862 -14.00902
H   -17.68573   0.73707 -15.42375
C   -16.87827   0.39769 -14.77720
H   -18.04785  -2.50998 -14.16748
H   -14.52705   3.24831 -12.14065
H   -15.12529  -8.97704 -13.85032
C   -15.68348  -7.01022 -14.12016
C   -15.60451   1.16763 -14.46396
H   -14.69548   1.01972 -15.04445
C   -16.01198  -3.18286 -14.01869
H   -15.08650   4.02587  -8.06110
C   -16.28152  -4.60279 -14.49328
C   -16.81670  -0.87296 -13.94351
C   -15.40741   1.37064  -9.91285
H   -15.39635   5.57872 -11.31750
C   -15.77484   1.97939 -13.18904
C   -15.10316   3.33804 -13.06016
H   -13.86592  -7.89880 -14.62181
C   -17.07142  -2.23775 -14.56491
H   -15.08114  -5.37219 -12.94594
C   -15.82683   3.31967  -8.43320
C   -15.40516   1.86637  -8.49027
C   -16.86698  -0.38042 -12.50536
C   -16.35118   1.01018 -12.16834
H   -16.80853   3.99965 -12.05838
H   -15.06724  -2.87092 -14.46103
C   -16.18645   4.38769 -12.86332
H   -16.82117   6.93430 -13.50963
H   -15.95463  -7.15021 -15.16534
H   -18.15909   6.13270 -11.69908
C   -16.51030   1.33579 -10.69117
H   -16.21671  -4.57363 -15.57977
C   -15.56925   5.69370 -12.38633
H   -17.34744  -0.99534 -11.74626
C   -17.04077   3.74432  -8.82531
H   -14.62937   3.49970 -14.02704
H   -19.27367   8.17430 -11.11239
H   -17.31056   4.78193  -8.63594
H   -16.89141  -2.08741 -15.62814
C   -16.40552   6.95902 -12.50358
C   -17.59815   7.05611 -11.56428
C   -16.27962   0.99953  -7.59311
H   -14.73946   5.86171 -13.07098
C   -18.55903   8.17606 -11.93401
C   -17.88103   1.72331 -10.26117
H   -16.61534   4.56570 -13.84813
C   -18.13637   2.91530  -9.36039
H   -17.92496   9.06003 -11.98208
H   -15.73144   7.76092 -12.20674
H   -17.19953   7.31365 -10.58432
C   -17.61028   0.89214  -7.78371
H   -19.01490   3.50698  -9.60822
H   -18.61481   1.58062 -11.05344
H   -18.98442   7.87891 -12.89135
C   -18.40797   1.51187  -8.85909
H   -18.17680   0.32921  -7.04382
H   -19.45814   1.23469  -8.79399
H   -14.36132   1.82330  -8.14978
H    -9.17500  -7.71993  -8.84094
H    -7.69479  -8.55117  -8.15885
C    -8.71628  -8.65449  -8.52168
H   -10.55496  -9.06235  -7.59768
H   -10.05296  -3.81834   0.27609
C    -9.50955  -9.07496  -7.29359
H   -10.23740  -2.69714   2.53084
H    -8.86917  -9.48532  -9.20878
H   -10.91708  -1.12883   4.28535
H    -9.62061  -5.38200   1.23865
C   -10.36514  -4.72435   0.79297
H    -9.05558 -10.00169  -6.94629
C   -10.62870  -3.60138   2.99423
H    -9.95068  -4.33239   3.43174
H    -9.76838  -7.13625  -6.52693
H    -8.29113  -8.58570   0.01456
C   -11.52349  -5.02792  -1.61997
C    -9.39207  -8.08404  -6.14539
C   -10.81497  -2.02030   4.90211
H    -9.82712  -2.40455   5.15119
H    -6.77147  -8.06311   1.96691
H   -10.20157  -9.47132  -4.81127
C   -10.99728  -5.58846  -0.28751
C   -11.35857  -4.32794   1.87463
H    -7.73540  -6.09120   3.19050
C    -8.68540  -8.20322   0.95449
C   -10.23811  -8.38841  -4.91832
C   -11.51343  -3.13724   4.14137
C   -12.55751  -5.93411  -2.33740
C    -7.83030  -8.13294   2.21044
H   -10.92624  -0.77297   6.54211
H   -12.03594  -3.61323   1.41001
C    -8.32825  -6.99915   3.09366
C   -11.46722  -1.66490   6.22971
H    -8.36440  -8.17087  -5.79626
C   -10.74887  -7.08850  -0.24822
H   -12.40405  -2.70971   3.68364
H   -11.75197  -6.93923  -5.18040
H    -9.84623  -7.73681  -4.13898
C   -10.14820  -7.78663   0.96223
H   -12.51031  -1.49392   5.96804
H   -11.75610  -5.24961   2.29651
C   -11.96941  -7.31135  -2.60395
C   -11.70962  -8.01380  -5.01010
C   -11.38160  -7.93080  -1.34530
H   -11.61677  -3.96722   4.83849
C    -9.52244  -7.19640   4.01477
C    -8.12830  -9.33586   3.09228
H    -7.49461  -9.71967   3.88999
H   -11.30015  -2.53238   6.86637
H    -9.35517  -6.95044   5.06203
C   -12.46045  -8.23750  -3.70616
H   -12.17319  -8.70994  -5.70723
C   -11.09570  -8.07049   2.11770
H   -11.48127  -8.98311  -1.08469
C   -10.74232  -7.90469   3.58263
C    -9.44246 -10.01541   2.73930
H   -13.49081  -7.92345  -3.86503
H   -12.22032  -9.24652  -3.37497
H   -12.12730  -7.93311   1.79803
C   -10.70451  -9.27880   2.94597
H   -11.58250  -7.71757   4.24782
H    -9.38639 -11.01574   2.31338
H   -11.52274  -9.94332   3.21498
H   -10.63304  -5.09097  -2.27092
H   -13.31217  -6.17654  -1.59097
H   -12.75022  -5.45637  -3.29660
H    -9.93435  -2.94573  -2.24190
